<?xml version="1.0" encoding="UTF-8"?>
<!-- generated on 2022-03-28 20:42:42.268570 by randomTrips.py UNKNOWN
  options: -n ./configurations/simple_grid1.net.xml -e 50 -p 0.62 -r ./configurations/str_sumo.rou.xml
-->
<routes xmlns:xsi="http://www.w3.org/2001/XMLSchema-instance" xsi:noNamespaceSchemaLocation="http://sumo.dlr.de/xsd/routes_file.xsd">
    <trip id="0" depart="0.00" from="gneE13" to="-gneE10"/>
    <trip id="1" depart="0.62" from="-gneE20" to="-gneE18"/>
    <trip id="2" depart="1.24" from="gneE18" to="gneE18"/>
    <trip id="3" depart="1.86" from="gneE25" to="-gneE12"/>
    <trip id="4" depart="2.48" from="-gneE26" to="-gneE10"/>
    <trip id="5" depart="3.10" from="-gneE18" to="gneE11"/>
    <trip id="6" depart="3.72" from="-gneE10" to="-gneE15"/>
    <trip id="7" depart="4.34" from="gneE13" to="gneE12"/>
    <trip id="8" depart="4.96" from="-gneE18" to="gneE13"/>
    <trip id="9" depart="5.58" from="gneE22" to="-gneE10"/>
    <trip id="10" depart="6.20" from="gneE22" to="gneE18"/>
    <trip id="11" depart="6.82" from="-gneE23" to="-gneE14"/>
    <trip id="12" depart="7.44" from="gneE28" to="-gneE25"/>
    <trip id="13" depart="8.06" from="-gneE12" to="-gneE12"/>
    <trip id="14" depart="8.68" from="gneE23" to="gneE14"/>
    <trip id="15" depart="9.30" from="gneE22" to="gneE19"/>
    <trip id="16" depart="9.92" from="gneE10" to="gneE9"/>
    <trip id="17" depart="10.54" from="-gneE25" to="gneE12"/>
    <trip id="18" depart="11.16" from="gneE22" to="gneE14"/>
    <trip id="19" depart="11.78" from="gneE23" to="gneE13"/>
    <trip id="20" depart="12.40" from="gneE15" to="-gneE11"/>
    <trip id="21" depart="13.02" from="-gneE18" to="-gneE22"/>
    <trip id="22" depart="13.64" from="-gneE12" to="-gneE18"/>
    <trip id="23" depart="14.26" from="-gneE13" to="-gneE22"/>
    <trip id="24" depart="14.88" from="gneE13" to="-gneE25"/>
    <trip id="25" depart="15.50" from="-gneE25" to="-gneE18"/>
    <trip id="26" depart="16.12" from="-gneE20" to="gneE28"/>
    <trip id="27" depart="16.74" from="gneE13" to="gneE14"/>
    <trip id="28" depart="17.36" from="-gneE15" to="gneE19"/>
    <trip id="29" depart="17.98" from="-gneE14" to="-gneE27"/>
    <trip id="30" depart="18.60" from="gneE9" to="gneE15"/>
    <trip id="31" depart="19.22" from="gneE10" to="gneE18"/>
    <trip id="32" depart="19.84" from="gneE23" to="gneE22"/>
    <trip id="33" depart="20.46" from="-gneE18" to="-gneE10"/>
    <trip id="34" depart="21.08" from="-gneE22" to="-gneE22"/>
    <trip id="35" depart="21.70" from="-gneE18" to="gneE28"/>
    <trip id="36" depart="22.32" from="gneE25" to="-gneE23"/>
    <trip id="37" depart="22.94" from="gneE13" to="-gneE27"/>
    <trip id="38" depart="23.56" from="gneE27" to="-gneE9"/>
    <trip id="39" depart="24.18" from="-gneE19" to="-gneE19"/>
    <trip id="40" depart="24.80" from="gneE10" to="-gneE19"/>
    <trip id="41" depart="25.42" from="gneE11" to="gneE26"/>
    <trip id="42" depart="26.04" from="-gneE25" to="-gneE18"/>
    <trip id="43" depart="26.66" from="gneE9" to="gneE11"/>
    <trip id="44" depart="27.28" from="-gneE12" to="-gneE11"/>
    <trip id="45" depart="27.90" from="-gneE13" to="gneE14"/>
    <trip id="46" depart="28.52" from="gneE19" to="-gneE28"/>
    <trip id="47" depart="29.14" from="-gneE11" to="-gneE27"/>
    <trip id="48" depart="29.76" from="gneE9" to="gneE11"/>
    <trip id="49" depart="30.38" from="gneE9" to="gneE25"/>
    <trip id="50" depart="31.00" from="-gneE10" to="gneE19"/>
    <trip id="51" depart="31.62" from="gneE14" to="gneE12"/>
    <trip id="52" depart="32.24" from="-gneE20" to="gneE15"/>
    <trip id="53" depart="32.86" from="-gneE13" to="-gneE9"/>
    <trip id="54" depart="33.48" from="-gneE27" to="gneE28"/>
    <trip id="55" depart="34.10" from="gneE25" to="-gneE19"/>
    <trip id="56" depart="34.72" from="-gneE9" to="-gneE15"/>
    <trip id="57" depart="35.34" from="gneE27" to="gneE26"/>
    <trip id="58" depart="35.96" from="-gneE20" to="gneE15"/>
    <trip id="59" depart="36.58" from="gneE12" to="-gneE14"/>
    <trip id="60" depart="37.20" from="gneE18" to="gneE12"/>
    <trip id="61" depart="37.82" from="gneE19" to="gneE11"/>
    <trip id="62" depart="38.44" from="-gneE10" to="-gneE23"/>
    <trip id="63" depart="39.06" from="-gneE10" to="gneE27"/>
    <trip id="64" depart="39.68" from="gneE25" to="gneE23"/>
    <trip id="65" depart="40.30" from="-gneE22" to="-gneE11"/>
    <trip id="66" depart="40.92" from="gneE25" to="gneE28"/>
    <trip id="67" depart="41.54" from="-gneE12" to="gneE10"/>
    <trip id="68" depart="42.16" from="-gneE12" to="gneE20"/>
    <trip id="69" depart="42.78" from="gneE18" to="-gneE13"/>
    <trip id="70" depart="43.40" from="-gneE28" to="gneE12"/>
    <trip id="71" depart="44.02" from="-gneE19" to="gneE26"/>
    <trip id="72" depart="44.64" from="-gneE26" to="-gneE18"/>
    <trip id="73" depart="45.26" from="gneE10" to="gneE19"/>
    <trip id="74" depart="45.88" from="-gneE18" to="-gneE23"/>
    <trip id="75" depart="46.50" from="gneE9" to="gneE15"/>
    <trip id="76" depart="47.12" from="-gneE27" to="gneE11"/>
    <trip id="77" depart="47.74" from="-gneE13" to="-gneE18"/>
    <trip id="78" depart="48.36" from="-gneE23" to="gneE13"/>
    <trip id="79" depart="48.98" from="-gneE18" to="-gneE18"/>
    <trip id="80" depart="49.60" from="-gneE12" to="gneE14"/>
</routes>
