<?xml version="1.0" encoding="UTF-8"?>
<!-- generated on 2022-03-22 18:39:46.948465 by randomTrips.py UNKNOWN
  options: -n ./configurations/simple_grid1.net.xml -e 50 -p 25.0 -r ./configurations/str_sumo.rou.xml
-->
<routes xmlns:xsi="http://www.w3.org/2001/XMLSchema-instance" xsi:noNamespaceSchemaLocation="http://sumo.dlr.de/xsd/routes_file.xsd">
    <trip id="0" depart="0.00" from="gneE13" to="-gneE10"/>
    <trip id="1" depart="25.00" from="-gneE20" to="-gneE18"/>
</routes>
