<?xml version="1.0" encoding="UTF-8"?>
<!-- generated on 2022-03-24 16:07:07.094744 by randomTrips.py UNKNOWN
  options: -n ./configurations/simple_grid1.net.xml -e 50 -p 2.5 -r ./configurations/str_sumo.rou.xml
-->
<routes xmlns:xsi="http://www.w3.org/2001/XMLSchema-instance" xsi:noNamespaceSchemaLocation="http://sumo.dlr.de/xsd/routes_file.xsd">
    <trip id="0" depart="0.00" from="gneE13" to="-gneE10"/>
    <trip id="1" depart="2.50" from="-gneE20" to="-gneE18"/>
    <trip id="2" depart="5.00" from="gneE18" to="gneE18"/>
    <trip id="3" depart="7.50" from="gneE25" to="-gneE12"/>
    <trip id="4" depart="10.00" from="-gneE26" to="-gneE10"/>
    <trip id="5" depart="12.50" from="-gneE18" to="gneE11"/>
    <trip id="6" depart="15.00" from="-gneE10" to="-gneE15"/>
    <trip id="7" depart="17.50" from="gneE13" to="gneE12"/>
    <trip id="8" depart="20.00" from="-gneE18" to="gneE13"/>
    <trip id="9" depart="22.50" from="gneE22" to="-gneE10"/>
    <trip id="10" depart="25.00" from="gneE22" to="gneE18"/>
    <trip id="11" depart="27.50" from="-gneE23" to="-gneE14"/>
    <trip id="12" depart="30.00" from="gneE28" to="-gneE25"/>
    <trip id="13" depart="32.50" from="-gneE12" to="-gneE12"/>
    <trip id="14" depart="35.00" from="gneE23" to="gneE14"/>
    <trip id="15" depart="37.50" from="gneE22" to="gneE19"/>
    <trip id="16" depart="40.00" from="gneE10" to="gneE9"/>
    <trip id="17" depart="42.50" from="-gneE25" to="gneE12"/>
    <trip id="18" depart="45.00" from="gneE22" to="gneE14"/>
    <trip id="19" depart="47.50" from="gneE23" to="gneE13"/>
</routes>
