<?xml version="1.0" encoding="UTF-8"?>
<!-- generated on 2022-03-23 13:39:53.720831 by randomTrips.py UNKNOWN
  options: -n ./configurations/simple_grid1.net.xml -e 50 -p 0.5 -r ./configurations/str_sumo.rou.xml
-->
<routes xmlns:xsi="http://www.w3.org/2001/XMLSchema-instance" xsi:noNamespaceSchemaLocation="http://sumo.dlr.de/xsd/routes_file.xsd">
    <trip id="0" depart="0.00" from="gneE13" to="-gneE10"/>
    <trip id="1" depart="0.50" from="-gneE20" to="-gneE18"/>
    <trip id="2" depart="1.00" from="gneE18" to="gneE18"/>
    <trip id="3" depart="1.50" from="gneE25" to="-gneE12"/>
    <trip id="4" depart="2.00" from="-gneE26" to="-gneE10"/>
    <trip id="5" depart="2.50" from="-gneE18" to="gneE11"/>
    <trip id="6" depart="3.00" from="-gneE10" to="-gneE15"/>
    <trip id="7" depart="3.50" from="gneE13" to="gneE12"/>
    <trip id="8" depart="4.00" from="-gneE18" to="gneE13"/>
    <trip id="9" depart="4.50" from="gneE22" to="-gneE10"/>
    <trip id="10" depart="5.00" from="gneE22" to="gneE18"/>
    <trip id="11" depart="5.50" from="-gneE23" to="-gneE14"/>
    <trip id="12" depart="6.00" from="gneE28" to="-gneE25"/>
    <trip id="13" depart="6.50" from="-gneE12" to="-gneE12"/>
    <trip id="14" depart="7.00" from="gneE23" to="gneE14"/>
    <trip id="15" depart="7.50" from="gneE22" to="gneE19"/>
    <trip id="16" depart="8.00" from="gneE10" to="gneE9"/>
    <trip id="17" depart="8.50" from="-gneE25" to="gneE12"/>
    <trip id="18" depart="9.00" from="gneE22" to="gneE14"/>
    <trip id="19" depart="9.50" from="gneE23" to="gneE13"/>
    <trip id="20" depart="10.00" from="gneE15" to="-gneE11"/>
    <trip id="21" depart="10.50" from="-gneE18" to="-gneE22"/>
    <trip id="22" depart="11.00" from="-gneE12" to="-gneE18"/>
    <trip id="23" depart="11.50" from="-gneE13" to="-gneE22"/>
    <trip id="24" depart="12.00" from="gneE13" to="-gneE25"/>
    <trip id="25" depart="12.50" from="-gneE25" to="-gneE18"/>
    <trip id="26" depart="13.00" from="-gneE20" to="gneE28"/>
    <trip id="27" depart="13.50" from="gneE13" to="gneE14"/>
    <trip id="28" depart="14.00" from="-gneE15" to="gneE19"/>
    <trip id="29" depart="14.50" from="-gneE14" to="-gneE27"/>
    <trip id="30" depart="15.00" from="gneE9" to="gneE15"/>
    <trip id="31" depart="15.50" from="gneE10" to="gneE18"/>
    <trip id="32" depart="16.00" from="gneE23" to="gneE22"/>
    <trip id="33" depart="16.50" from="-gneE18" to="-gneE10"/>
    <trip id="34" depart="17.00" from="-gneE22" to="-gneE22"/>
    <trip id="35" depart="17.50" from="-gneE18" to="gneE28"/>
    <trip id="36" depart="18.00" from="gneE25" to="-gneE23"/>
    <trip id="37" depart="18.50" from="gneE13" to="-gneE27"/>
    <trip id="38" depart="19.00" from="gneE27" to="-gneE9"/>
    <trip id="39" depart="19.50" from="-gneE19" to="-gneE19"/>
    <trip id="40" depart="20.00" from="gneE10" to="-gneE19"/>
    <trip id="41" depart="20.50" from="gneE11" to="gneE26"/>
    <trip id="42" depart="21.00" from="-gneE25" to="-gneE18"/>
    <trip id="43" depart="21.50" from="gneE9" to="gneE11"/>
    <trip id="44" depart="22.00" from="-gneE12" to="-gneE11"/>
    <trip id="45" depart="22.50" from="-gneE13" to="gneE14"/>
    <trip id="46" depart="23.00" from="gneE19" to="-gneE28"/>
    <trip id="47" depart="23.50" from="-gneE11" to="-gneE27"/>
    <trip id="48" depart="24.00" from="gneE9" to="gneE11"/>
    <trip id="49" depart="24.50" from="gneE9" to="gneE25"/>
    <trip id="50" depart="25.00" from="-gneE10" to="gneE19"/>
    <trip id="51" depart="25.50" from="gneE14" to="gneE12"/>
    <trip id="52" depart="26.00" from="-gneE20" to="gneE15"/>
    <trip id="53" depart="26.50" from="-gneE13" to="-gneE9"/>
    <trip id="54" depart="27.00" from="-gneE27" to="gneE28"/>
    <trip id="55" depart="27.50" from="gneE25" to="-gneE19"/>
    <trip id="56" depart="28.00" from="-gneE9" to="-gneE15"/>
    <trip id="57" depart="28.50" from="gneE27" to="gneE26"/>
    <trip id="58" depart="29.00" from="-gneE20" to="gneE15"/>
    <trip id="59" depart="29.50" from="gneE12" to="-gneE14"/>
    <trip id="60" depart="30.00" from="gneE18" to="gneE12"/>
    <trip id="61" depart="30.50" from="gneE19" to="gneE11"/>
    <trip id="62" depart="31.00" from="-gneE10" to="-gneE23"/>
    <trip id="63" depart="31.50" from="-gneE10" to="gneE27"/>
    <trip id="64" depart="32.00" from="gneE25" to="gneE23"/>
    <trip id="65" depart="32.50" from="-gneE22" to="-gneE11"/>
    <trip id="66" depart="33.00" from="gneE25" to="gneE28"/>
    <trip id="67" depart="33.50" from="-gneE12" to="gneE10"/>
    <trip id="68" depart="34.00" from="-gneE12" to="gneE20"/>
    <trip id="69" depart="34.50" from="gneE18" to="-gneE13"/>
    <trip id="70" depart="35.00" from="-gneE28" to="gneE12"/>
    <trip id="71" depart="35.50" from="-gneE19" to="gneE26"/>
    <trip id="72" depart="36.00" from="-gneE26" to="-gneE18"/>
    <trip id="73" depart="36.50" from="gneE10" to="gneE19"/>
    <trip id="74" depart="37.00" from="-gneE18" to="-gneE23"/>
    <trip id="75" depart="37.50" from="gneE9" to="gneE15"/>
    <trip id="76" depart="38.00" from="-gneE27" to="gneE11"/>
    <trip id="77" depart="38.50" from="-gneE13" to="-gneE18"/>
    <trip id="78" depart="39.00" from="-gneE23" to="gneE13"/>
    <trip id="79" depart="39.50" from="-gneE18" to="-gneE18"/>
    <trip id="80" depart="40.00" from="-gneE12" to="gneE14"/>
    <trip id="81" depart="40.50" from="-gneE18" to="gneE27"/>
    <trip id="82" depart="41.00" from="gneE23" to="-gneE12"/>
    <trip id="83" depart="41.50" from="-gneE19" to="gneE18"/>
    <trip id="84" depart="42.00" from="-gneE18" to="-gneE13"/>
    <trip id="85" depart="42.50" from="gneE28" to="gneE13"/>
    <trip id="86" depart="43.00" from="-gneE28" to="gneE22"/>
    <trip id="87" depart="43.50" from="gneE22" to="-gneE15"/>
    <trip id="88" depart="44.00" from="-gneE12" to="-gneE28"/>
    <trip id="89" depart="44.50" from="-gneE26" to="gneE10"/>
    <trip id="90" depart="45.00" from="gneE15" to="gneE18"/>
    <trip id="91" depart="45.50" from="gneE9" to="-gneE12"/>
    <trip id="92" depart="46.00" from="-gneE26" to="-gneE25"/>
    <trip id="93" depart="46.50" from="gneE23" to="-gneE19"/>
    <trip id="94" depart="47.00" from="-gneE15" to="-gneE9"/>
    <trip id="95" depart="47.50" from="-gneE26" to="-gneE22"/>
    <trip id="96" depart="48.00" from="-gneE19" to="gneE27"/>
    <trip id="97" depart="48.50" from="-gneE27" to="gneE25"/>
    <trip id="98" depart="49.00" from="gneE10" to="-gneE11"/>
    <trip id="99" depart="49.50" from="gneE9" to="gneE25"/>
</routes>
