<?xml version="1.0" ?>
<!-- generated on 2022-03-23 13:39:53 by Eclipse SUMO duarouter Version 1.12.0
<configuration xmlns:xsi="http://www.w3.org/2001/XMLSchema-instance" xsi:noNamespaceSchemaLocation="http://sumo.dlr.de/xsd/duarouterConfiguration.xsd">

    <input>
        <net-file value="./configurations/simple_grid1.net.xml"/>
        <route-files value="trips.trips.xml"/>
    </input>

    <output>
        <output-file value="./configurations/str_sumo.rou.xml"/>
        <alternatives-output value="./configurations/str_sumo.rou.alt.xml"/>
    </output>

    <time>
        <begin value="0"/>
        <end value="50"/>
    </time>

    <report>
        <no-warnings value="true"/>
        <ignore-errors value="true"/>
        <no-step-log value="true"/>
    </report>

</configuration>
-->
<routes xmlns:xsi="http://www.w3.org/2001/XMLSchema-instance" xsi:noNamespaceSchemaLocation="http://sumo.dlr.de/xsd/routes_file.xsd">
	
    
	<vehicle id="0" depart="0.00">
		
        
		<route edges="gneE13 -gneE23 -gneE10"/>
		
    
	</vehicle>
	
    
	<vehicle depart="0" id="100">
		<route edges="-gneE13"/>
	</vehicle>
	<vehicle id="1" depart="0.50">
		
        
		<route edges="-gneE20 -gneE19 -gneE18"/>
		
    
	</vehicle>
	
    
	<vehicle id="2" depart="1.00">
		
        
		<route edges="gneE18"/>
		
    
	</vehicle>
	
    
	<vehicle id="3" depart="1.50">
		
        
		<route edges="gneE25 -gneE19 -gneE18 -gneE28 -gneE12"/>
		
    
	</vehicle>
	
    
	<vehicle depart="1.6666666666666667" id="101">
		<route edges="-gneE13"/>
	</vehicle>
	<vehicle id="4" depart="2.00">
		
        
		<route edges="-gneE26 gneE22 -gneE11 -gneE10"/>
		
    
	</vehicle>
	
    
	<vehicle id="5" depart="2.50">
		
        
		<route edges="-gneE18 gneE27 -gneE15 -gneE14 -gneE23 gneE11"/>
		
    
	</vehicle>
	
    
	<vehicle id="6" depart="3.00">
		
        
		<route edges="-gneE10 -gneE9 gneE22 gneE12 gneE28 gneE27 -gneE15"/>
		
    
	</vehicle>
	
    
	<vehicle depart="3.3333333333333335" id="102">
		<route edges="-gneE13"/>
	</vehicle>
	<vehicle id="7" depart="3.50">
		
        
		<route edges="gneE13 -gneE23 gneE11 gneE12"/>
		
    
	</vehicle>
	
    
	<vehicle id="8" depart="4.00">
		
        
		<route edges="-gneE18 -gneE28 gneE13"/>
		
    
	</vehicle>
	
    
	<vehicle id="9" depart="4.50">
		
        
		<route edges="gneE22 -gneE11 -gneE10"/>
		
    
	</vehicle>
	
    
	<vehicle id="10" depart="5.00">
		
        
		<route edges="gneE22 gneE12 gneE28 gneE18"/>
		
    
	</vehicle>
	
    
	<vehicle depart="5.0" id="103">
		<route edges="-gneE13"/>
	</vehicle>
	<vehicle id="11" depart="5.50">
		
        
		<route edges="-gneE23 gneE11 gneE12 gneE28 gneE27 -gneE15 -gneE14"/>
		
    
	</vehicle>
	
    
	<vehicle id="12" depart="6.00">
		
        
		<route edges="gneE28 gneE18 gneE19 -gneE25"/>
		
    
	</vehicle>
	
    
	<vehicle id="13" depart="6.50">
		
        
		<route edges="-gneE12"/>
		
    
	</vehicle>
	
    
	<vehicle depart="6.666666666666667" id="104">
		<route edges="-gneE13"/>
	</vehicle>
	<vehicle id="14" depart="7.00">
		
        
		<route edges="gneE23 gneE14"/>
		
    
	</vehicle>
	
    
	<vehicle id="15" depart="7.50">
		
        
		<route edges="gneE22 gneE12 gneE28 gneE18 gneE19"/>
		
    
	</vehicle>
	
    
	<vehicle id="16" depart="8.00">
		
        
		<route edges="gneE10 gneE11 -gneE22 gneE9"/>
		
    
	</vehicle>
	
    
	<vehicle depart="8.333333333333334" id="105">
		<route edges="-gneE13"/>
	</vehicle>
	<vehicle id="17" depart="8.50">
		
        
		<route edges="-gneE25 -gneE14 -gneE23 gneE11 gneE12"/>
		
    
	</vehicle>
	
    
	<vehicle id="18" depart="9.00">
		
        
		<route edges="gneE22 gneE12 gneE13 gneE14"/>
		
    
	</vehicle>
	
    
	<vehicle id="19" depart="9.50">
		
        
		<route edges="gneE23 gneE14 gneE15 -gneE27 -gneE28 gneE13"/>
		
    
	</vehicle>
	
    
	<vehicle id="20" depart="10.00">
		
        
		<route edges="gneE15 -gneE27 -gneE28 -gneE12 -gneE11"/>
		
    
	</vehicle>
	
    
	<vehicle depart="10.0" id="106">
		<route edges="-gneE13"/>
	</vehicle>
	<vehicle id="21" depart="10.50">
		
        
		<route edges="-gneE18 -gneE28 -gneE12 -gneE22"/>
		
    
	</vehicle>
	
    
	<vehicle id="22" depart="11.00">
		
        
		<route edges="-gneE12 -gneE11 gneE23 gneE14 gneE25 -gneE19 -gneE18"/>
		
    
	</vehicle>
	
    
	<vehicle id="23" depart="11.50">
		
        
		<route edges="-gneE13 -gneE12 -gneE22"/>
		
    
	</vehicle>
	
    
	<vehicle depart="11.666666666666666" id="107">
		<route edges="-gneE13"/>
	</vehicle>
	<vehicle id="24" depart="12.00">
		
        
		<route edges="gneE13 gneE14 gneE15 -gneE27 gneE18 gneE19 -gneE25"/>
		
    
	</vehicle>
	
    
	<vehicle id="25" depart="12.50">
		
        
		<route edges="-gneE25 gneE15 -gneE27 -gneE28 gneE13 gneE14 gneE25 -gneE19 -gneE18"/>
		
    
	</vehicle>
	
    
	<vehicle id="26" depart="13.00">
		
        
		<route edges="-gneE20 -gneE25 -gneE14 -gneE13 gneE28"/>
		
    
	</vehicle>
	
    
	<vehicle depart="13.333333333333332" id="108">
		<route edges="-gneE13"/>
	</vehicle>
	<vehicle id="27" depart="13.50">
		
        
		<route edges="gneE13 gneE14"/>
		
    
	</vehicle>
	
    
	<vehicle id="28" depart="14.00">
		
        
		<route edges="-gneE15 -gneE14 -gneE13 gneE28 gneE18 gneE19"/>
		
    
	</vehicle>
	
    
	<vehicle id="29" depart="14.50">
		
        
		<route edges="-gneE14 -gneE13 -gneE12 -gneE11 gneE23 gneE14 gneE15 -gneE27"/>
		
    
	</vehicle>
	
    
	<vehicle depart="14.999999999999998" id="109">
		<route edges="-gneE13"/>
	</vehicle>
	<vehicle id="30" depart="15.00">
		
        
		<route edges="gneE9 gneE10 gneE23 gneE14 gneE15"/>
		
    
	</vehicle>
	
    
	<vehicle id="31" depart="15.50">
		
        
		<route edges="gneE10 gneE23 gneE14 gneE15 -gneE27 gneE18"/>
		
    
	</vehicle>
	
    
	<vehicle id="32" depart="16.00">
		
        
		<route edges="gneE23 -gneE13 -gneE12 -gneE11 -gneE10 -gneE9 gneE22"/>
		
    
	</vehicle>
	
    
	<vehicle id="33" depart="16.50">
		
        
		<route edges="-gneE18 gneE27 -gneE15 -gneE14 -gneE23 -gneE10"/>
		
    
	</vehicle>
	
    
	<vehicle depart="16.666666666666664" id="110">
		<route edges="-gneE13"/>
	</vehicle>
	<vehicle id="34" depart="17.00">
		
        
		<route edges="-gneE22"/>
		
    
	</vehicle>
	
    
	<vehicle id="35" depart="17.50">
		
        
		<route edges="-gneE18 gneE27 -gneE15 -gneE14 -gneE13 gneE28"/>
		
    
	</vehicle>
	
    
	<vehicle id="36" depart="18.00">
		
        
		<route edges="gneE25 -gneE19 -gneE18 gneE27 -gneE15 -gneE14 -gneE23"/>
		
    
	</vehicle>
	
    
	<vehicle depart="18.333333333333332" id="111">
		<route edges="-gneE13"/>
	</vehicle>
	<vehicle id="37" depart="18.50">
		
        
		<route edges="gneE13 gneE14 gneE15 -gneE27"/>
		
    
	</vehicle>
	
    
	<vehicle id="38" depart="19.00">
		
        
		<route edges="gneE27 -gneE15 -gneE14 -gneE23 -gneE10 -gneE9"/>
		
    
	</vehicle>
	
    
	<vehicle id="39" depart="19.50">
		
        
		<route edges="-gneE19"/>
		
    
	</vehicle>
	
    
	<vehicle id="40" depart="20.00">
		
        
		<route edges="gneE10 gneE23 gneE14 gneE25 -gneE19"/>
		
    
	</vehicle>
	
    
	<vehicle depart="20.0" id="112">
		<route edges="-gneE13"/>
	</vehicle>
	<vehicle id="41" depart="20.50">
		
        
		<route edges="gneE11 -gneE22 gneE26"/>
		
    
	</vehicle>
	
    
	<vehicle id="42" depart="21.00">
		
        
		<route edges="-gneE25 gneE15 -gneE27 -gneE28 gneE13 gneE14 gneE25 -gneE19 -gneE18"/>
		
    
	</vehicle>
	
    
	<vehicle id="43" depart="21.50">
		
        
		<route edges="gneE9 gneE10 gneE11"/>
		
    
	</vehicle>
	
    
	<vehicle depart="21.666666666666668" id="113">
		<route edges="-gneE13"/>
	</vehicle>
	<vehicle id="44" depart="22.00">
		
        
		<route edges="-gneE12 -gneE11"/>
		
    
	</vehicle>
	
    
	<vehicle id="45" depart="22.50">
		
        
		<route edges="-gneE13 -gneE12 -gneE11 gneE23 gneE14"/>
		
    
	</vehicle>
	
    
	<vehicle id="46" depart="23.00">
		
        
		<route edges="gneE19 -gneE25 gneE15 -gneE27 -gneE28"/>
		
    
	</vehicle>
	
    
	<vehicle depart="23.333333333333336" id="114">
		<route edges="-gneE13"/>
	</vehicle>
	<vehicle id="47" depart="23.50">
		
        
		<route edges="-gneE11 gneE23 gneE14 gneE15 -gneE27"/>
		
    
	</vehicle>
	
    
	<vehicle id="48" depart="24.00">
		
        
		<route edges="gneE9 gneE10 gneE11"/>
		
    
	</vehicle>
	
    
	<vehicle id="49" depart="24.50">
		
        
		<route edges="gneE9 gneE10 gneE23 gneE14 gneE25"/>
		
    
	</vehicle>
	
    
	<vehicle id="50" depart="25.00">
		
        
		<route edges="-gneE10 -gneE9 gneE22 gneE12 gneE28 gneE18 gneE19"/>
		
    
	</vehicle>
	
    
	<vehicle depart="25.000000000000004" id="115">
		<route edges="-gneE13"/>
	</vehicle>
	<vehicle id="51" depart="25.50">
		
        
		<route edges="gneE14 gneE15 -gneE27 -gneE28 gneE13 -gneE23 gneE11 gneE12"/>
		
    
	</vehicle>
	
    
	<vehicle id="52" depart="26.00">
		
        
		<route edges="-gneE20 -gneE25 gneE15"/>
		
    
	</vehicle>
	
    
	<vehicle id="53" depart="26.50">
		
        
		<route edges="-gneE13 -gneE12 -gneE11 -gneE10 -gneE9"/>
		
    
	</vehicle>
	
    
	<vehicle depart="26.66666666666667" id="116">
		<route edges="-gneE13"/>
	</vehicle>
	<vehicle id="54" depart="27.00">
		
        
		<route edges="-gneE27 -gneE28 -gneE12 -gneE11 gneE23 -gneE13 gneE28"/>
		
    
	</vehicle>
	
    
	<vehicle id="55" depart="27.50">
		
        
		<route edges="gneE25 -gneE19"/>
		
    
	</vehicle>
	
    
	<vehicle id="56" depart="28.00">
		
        
		<route edges="-gneE9 gneE22 gneE12 gneE28 gneE27 -gneE15"/>
		
    
	</vehicle>
	
    
	<vehicle depart="28.33333333333334" id="117">
		<route edges="-gneE13"/>
	</vehicle>
	<vehicle id="57" depart="28.50">
		
        
		<route edges="gneE27 -gneE15 -gneE14 -gneE23 -gneE10 -gneE9 gneE26"/>
		
    
	</vehicle>
	
    
	<vehicle id="58" depart="29.00">
		
        
		<route edges="-gneE20 -gneE25 gneE15"/>
		
    
	</vehicle>
	
    
	<vehicle id="59" depart="29.50">
		
        
		<route edges="gneE12 gneE28 gneE27 -gneE15 -gneE14"/>
		
    
	</vehicle>
	
    
	<vehicle id="60" depart="30.00">
		
        
		<route edges="gneE18 gneE19 -gneE25 -gneE14 -gneE23 gneE11 gneE12"/>
		
    
	</vehicle>
	
    
	<vehicle depart="30.000000000000007" id="118">
		<route edges="-gneE13"/>
	</vehicle>
	<vehicle id="61" depart="30.50">
		
        
		<route edges="gneE19 -gneE25 -gneE14 -gneE23 gneE11"/>
		
    
	</vehicle>
	
    
	<vehicle id="62" depart="31.00">
		
        
		<route edges="-gneE10 -gneE9 gneE22 gneE12 gneE13 -gneE23"/>
		
    
	</vehicle>
	
    
	<vehicle id="63" depart="31.50">
		
        
		<route edges="-gneE10 -gneE9 gneE22 gneE12 gneE28 gneE27"/>
		
    
	</vehicle>
	
    
	<vehicle depart="31.666666666666675" id="119">
		<route edges="-gneE13"/>
	</vehicle>
	<vehicle id="64" depart="32.00">
		
        
		<route edges="gneE25 -gneE19 -gneE18 -gneE28 -gneE12 -gneE11 gneE23"/>
		
    
	</vehicle>
	
    
	<vehicle id="65" depart="32.50">
		
        
		<route edges="-gneE22 gneE9 gneE10 gneE23 -gneE13 -gneE12 -gneE11"/>
		
    
	</vehicle>
	
    
	<vehicle id="66" depart="33.00">
		
        
		<route edges="gneE25 -gneE19 -gneE18 gneE27 -gneE15 -gneE14 -gneE13 gneE28"/>
		
    
	</vehicle>
	
    
	<vehicle depart="33.33333333333334" id="120">
		<route edges="-gneE13"/>
	</vehicle>
	<vehicle id="67" depart="33.50">
		
        
		<route edges="-gneE12 -gneE22 gneE9 gneE10"/>
		
    
	</vehicle>
	
    
	<vehicle id="68" depart="34.00">
		
        
		<route edges="-gneE12 -gneE11 gneE23 gneE14 gneE25 gneE20"/>
		
    
	</vehicle>
	
    
	<vehicle id="69" depart="34.50">
		
        
		<route edges="gneE18 gneE19 -gneE25 -gneE14 -gneE13"/>
		
    
	</vehicle>
	
    
	<vehicle id="70" depart="35.00">
		
        
		<route edges="-gneE28 gneE13 -gneE23 gneE11 gneE12"/>
		
    
	</vehicle>
	
    
	<vehicle depart="35.00000000000001" id="121">
		<route edges="-gneE13"/>
	</vehicle>
	<vehicle id="71" depart="35.50">
		
        
		<route edges="-gneE19 -gneE18 -gneE28 -gneE12 -gneE22 gneE26"/>
		
    
	</vehicle>
	
    
	<vehicle id="72" depart="36.00">
		
        
		<route edges="-gneE26 gneE9 gneE10 gneE23 gneE14 gneE25 -gneE19 -gneE18"/>
		
    
	</vehicle>
	
    
	<vehicle id="73" depart="36.50">
		
        
		<route edges="gneE10 gneE23 gneE14 gneE15 -gneE27 gneE18 gneE19"/>
		
    
	</vehicle>
	
    
	<vehicle depart="36.66666666666667" id="122">
		<route edges="-gneE13"/>
	</vehicle>
	<vehicle id="74" depart="37.00">
		
        
		<route edges="-gneE18 gneE27 -gneE15 -gneE14 -gneE23"/>
		
    
	</vehicle>
	
    
	<vehicle id="75" depart="37.50">
		
        
		<route edges="gneE9 gneE10 gneE23 gneE14 gneE15"/>
		
    
	</vehicle>
	
    
	<vehicle id="76" depart="38.00">
		
        
		<route edges="-gneE27 -gneE28 gneE13 -gneE23 gneE11"/>
		
    
	</vehicle>
	
    
	<vehicle depart="38.333333333333336" id="123">
		<route edges="-gneE13"/>
	</vehicle>
	<vehicle id="77" depart="38.50">
		
        
		<route edges="-gneE13 gneE28 gneE27 -gneE15 gneE25 -gneE19 -gneE18"/>
		
    
	</vehicle>
	
    
	<vehicle id="78" depart="39.00">
		
        
		<route edges="-gneE23 gneE11 gneE12 gneE13"/>
		
    
	</vehicle>
	
    
	<vehicle id="79" depart="39.50">
		
        
		<route edges="-gneE18"/>
		
    
	</vehicle>
	
    
	<vehicle id="80" depart="40.00">
		
        
		<route edges="-gneE12 -gneE11 gneE23 gneE14"/>
		
    
	</vehicle>
	
    
	<vehicle depart="40.0" id="124">
		<route edges="-gneE13"/>
	</vehicle>
	<vehicle id="81" depart="40.50">
		
        
		<route edges="-gneE18 gneE27"/>
		
    
	</vehicle>
	
    
	<vehicle id="82" depart="41.00">
		
        
		<route edges="gneE23 -gneE13 -gneE12"/>
		
    
	</vehicle>
	
    
	<vehicle id="83" depart="41.50">
		
        
		<route edges="-gneE19 -gneE18 -gneE28 gneE13 gneE14 gneE15 -gneE27 gneE18"/>
		
    
	</vehicle>
	
    
	<vehicle depart="41.666666666666664" id="125">
		<route edges="-gneE13"/>
	</vehicle>
	<vehicle id="84" depart="42.00">
		
        
		<route edges="-gneE18 gneE27 -gneE15 -gneE14 -gneE13"/>
		
    
	</vehicle>
	
    
	<vehicle id="85" depart="42.50">
		
        
		<route edges="gneE28 gneE27 -gneE15 gneE25 -gneE19 -gneE18 -gneE28 gneE13"/>
		
    
	</vehicle>
	
    
	<vehicle id="86" depart="43.00">
		
        
		<route edges="-gneE28 -gneE12 -gneE11 -gneE10 -gneE9 gneE22"/>
		
    
	</vehicle>
	
    
	<vehicle depart="43.33333333333333" id="126">
		<route edges="-gneE13"/>
	</vehicle>
	<vehicle id="87" depart="43.50">
		
        
		<route edges="gneE22 gneE12 gneE28 gneE27 -gneE15"/>
		
    
	</vehicle>
	
    
	<vehicle id="88" depart="44.00">
		
        
		<route edges="-gneE12 -gneE11 gneE23 gneE14 gneE15 -gneE27 -gneE28"/>
		
    
	</vehicle>
	
    
	<vehicle id="89" depart="44.50">
		
        
		<route edges="-gneE26 gneE9 gneE10"/>
		
    
	</vehicle>
	
    
	<vehicle depart="44.99999999999999" id="127">
		<route edges="-gneE13"/>
	</vehicle>
	<vehicle id="90" depart="45.00">
		
        
		<route edges="gneE15 -gneE27 gneE18"/>
		
    
	</vehicle>
	
    
	<vehicle id="91" depart="45.50">
		
        
		<route edges="gneE9 gneE10 gneE23 -gneE13 -gneE12"/>
		
    
	</vehicle>
	
    
	<vehicle id="92" depart="46.00">
		
        
		<route edges="-gneE26 gneE22 gneE12 gneE28 gneE18 gneE19 -gneE25"/>
		
    
	</vehicle>
	
    
	<vehicle id="93" depart="46.50">
		
        
		<route edges="gneE23 gneE14 gneE25 -gneE19"/>
		
    
	</vehicle>
	
    
	<vehicle depart="46.66666666666666" id="128">
		<route edges="-gneE13"/>
	</vehicle>
	<vehicle id="94" depart="47.00">
		
        
		<route edges="-gneE15 -gneE14 -gneE23 -gneE10 -gneE9"/>
		
    
	</vehicle>
	
    
	<vehicle id="95" depart="47.50">
		
        
		<route edges="-gneE26 gneE9 gneE10 gneE11 -gneE22"/>
		
    
	</vehicle>
	
    
	<vehicle id="96" depart="48.00">
		
        
		<route edges="-gneE19 -gneE18 gneE27"/>
		
    
	</vehicle>
	
    
	<vehicle depart="48.33333333333332" id="129">
		<route edges="-gneE13"/>
	</vehicle>
	<vehicle id="97" depart="48.50">
		
        
		<route edges="-gneE27 -gneE28 gneE13 gneE14 gneE25"/>
		
    
	</vehicle>
	
    
	<vehicle id="98" depart="49.00">
		
        
		<route edges="gneE10 gneE23 -gneE13 -gneE12 -gneE11"/>
		
    
	</vehicle>
	
    
	<vehicle id="99" depart="49.50">
		
        
		<route edges="gneE9 gneE10 gneE23 gneE14 gneE25"/>
		
    
	</vehicle>
	

</routes>
