<?xml version="1.0" ?>
<!-- generated on 2022-03-22 18:39:46 by Eclipse SUMO duarouter Version 1.12.0
<configuration xmlns:xsi="http://www.w3.org/2001/XMLSchema-instance" xsi:noNamespaceSchemaLocation="http://sumo.dlr.de/xsd/duarouterConfiguration.xsd">

    <input>
        <net-file value="./configurations/simple_grid1.net.xml"/>
        <route-files value="trips.trips.xml"/>
    </input>

    <output>
        <output-file value="./configurations/str_sumo.rou.xml"/>
        <alternatives-output value="./configurations/str_sumo.rou.alt.xml"/>
    </output>

    <time>
        <begin value="0"/>
        <end value="50"/>
    </time>

    <report>
        <no-warnings value="true"/>
        <ignore-errors value="true"/>
        <no-step-log value="true"/>
    </report>

</configuration>
-->
<routes xmlns:xsi="http://www.w3.org/2001/XMLSchema-instance" xsi:noNamespaceSchemaLocation="http://sumo.dlr.de/xsd/routes_file.xsd">
	
    
	<vehicle id="0" depart="0.00">
		
        
		<route edges="gneE13 -gneE23 -gneE10"/>
		
    
	</vehicle>
	
    
	<vehicle depart="0" id="2">
		<route edges="-gneE18"/>
	</vehicle>
	<vehicle depart="16.666666666666668" id="3">
		<route edges="-gneE18"/>
	</vehicle>
	<vehicle id="1" depart="25.00">
		
        
		<route edges="-gneE20 -gneE19 -gneE18"/>
		
    
	</vehicle>
	

	<vehicle depart="33.333333333333336" id="4">
		<route edges="-gneE18"/>
	</vehicle>
</routes>
