<?xml version="1.0" ?>
<!-- generated on 2022-03-24 18:30:21 by Eclipse SUMO duarouter Version 1.12.0
<configuration xmlns:xsi="http://www.w3.org/2001/XMLSchema-instance" xsi:noNamespaceSchemaLocation="http://sumo.dlr.de/xsd/duarouterConfiguration.xsd">

    <input>
        <net-file value="./configurations/simple_grid1.net.xml"/>
        <route-files value="trips.trips.xml"/>
    </input>

    <output>
        <output-file value="./configurations/str_sumo.rou.xml"/>
        <alternatives-output value="./configurations/str_sumo.rou.alt.xml"/>
    </output>

    <time>
        <begin value="0"/>
        <end value="50"/>
    </time>

    <report>
        <no-warnings value="true"/>
        <ignore-errors value="true"/>
        <no-step-log value="true"/>
    </report>

</configuration>
-->
<routes xmlns:xsi="http://www.w3.org/2001/XMLSchema-instance" xsi:noNamespaceSchemaLocation="http://sumo.dlr.de/xsd/routes_file.xsd">
	
    
	<vehicle id="0" depart="0.00">
		
        
		<route edges="gneE13 -gneE23 -gneE10"/>
		
    
	</vehicle>
	
    
	<vehicle depart="0" id="20">
		<route edges="-gneE25"/>
	</vehicle>
	<vehicle id="1" depart="2.50">
		
        
		<route edges="-gneE20 -gneE19 -gneE18"/>
		
    
	</vehicle>
	
    
	<vehicle depart="2.5" id="21">
		<route edges="-gneE25"/>
	</vehicle>
	<vehicle id="2" depart="5.00">
		
        
		<route edges="gneE18"/>
		
    
	</vehicle>
	
    
	<vehicle depart="5.0" id="22">
		<route edges="-gneE25"/>
	</vehicle>
	<vehicle id="3" depart="7.50">
		
        
		<route edges="gneE25 -gneE19 -gneE18 -gneE28 -gneE12"/>
		
    
	</vehicle>
	
    
	<vehicle depart="7.5" id="23">
		<route edges="-gneE25"/>
	</vehicle>
	<vehicle id="4" depart="10.00">
		
        
		<route edges="-gneE26 gneE22 -gneE11 -gneE10"/>
		
    
	</vehicle>
	
    
	<vehicle depart="10.0" id="24">
		<route edges="-gneE25"/>
	</vehicle>
	<vehicle id="5" depart="12.50">
		
        
		<route edges="-gneE18 gneE27 -gneE15 -gneE14 -gneE23 gneE11"/>
		
    
	</vehicle>
	
    
	<vehicle depart="12.5" id="25">
		<route edges="-gneE25"/>
	</vehicle>
	<vehicle id="6" depart="15.00">
		
        
		<route edges="-gneE10 -gneE9 gneE22 gneE12 gneE28 gneE27 -gneE15"/>
		
    
	</vehicle>
	
    
	<vehicle depart="15.0" id="26">
		<route edges="-gneE25"/>
	</vehicle>
	<vehicle id="7" depart="17.50">
		
        
		<route edges="gneE13 -gneE23 gneE11 gneE12"/>
		
    
	</vehicle>
	
    
	<vehicle depart="17.5" id="27">
		<route edges="-gneE25"/>
	</vehicle>
	<vehicle id="8" depart="20.00">
		
        
		<route edges="-gneE18 -gneE28 gneE13"/>
		
    
	</vehicle>
	
    
	<vehicle depart="20.0" id="28">
		<route edges="-gneE25"/>
	</vehicle>
	<vehicle id="9" depart="22.50">
		
        
		<route edges="gneE22 -gneE11 -gneE10"/>
		
    
	</vehicle>
	
    
	<vehicle depart="22.5" id="29">
		<route edges="-gneE25"/>
	</vehicle>
	<vehicle id="10" depart="25.00">
		
        
		<route edges="gneE22 gneE12 gneE28 gneE18"/>
		
    
	</vehicle>
	
    
	<vehicle depart="25.0" id="30">
		<route edges="-gneE25"/>
	</vehicle>
	<vehicle id="11" depart="27.50">
		
        
		<route edges="-gneE23 gneE11 gneE12 gneE28 gneE27 -gneE15 -gneE14"/>
		
    
	</vehicle>
	
    
	<vehicle depart="27.5" id="31">
		<route edges="-gneE25"/>
	</vehicle>
	<vehicle id="12" depart="30.00">
		
        
		<route edges="gneE28 gneE18 gneE19 -gneE25"/>
		
    
	</vehicle>
	
    
	<vehicle depart="30.0" id="32">
		<route edges="-gneE25"/>
	</vehicle>
	<vehicle id="13" depart="32.50">
		
        
		<route edges="-gneE12"/>
		
    
	</vehicle>
	
    
	<vehicle depart="32.5" id="33">
		<route edges="-gneE25"/>
	</vehicle>
	<vehicle id="14" depart="35.00">
		
        
		<route edges="gneE23 gneE14"/>
		
    
	</vehicle>
	
    
	<vehicle depart="35.0" id="34">
		<route edges="-gneE25"/>
	</vehicle>
	<vehicle id="15" depart="37.50">
		
        
		<route edges="gneE22 gneE12 gneE28 gneE18 gneE19"/>
		
    
	</vehicle>
	
    
	<vehicle depart="37.5" id="35">
		<route edges="-gneE25"/>
	</vehicle>
	<vehicle id="16" depart="40.00">
		
        
		<route edges="gneE10 gneE11 -gneE22 gneE9"/>
		
    
	</vehicle>
	
    
	<vehicle depart="40.0" id="36">
		<route edges="-gneE25"/>
	</vehicle>
	<vehicle id="17" depart="42.50">
		
        
		<route edges="-gneE25 -gneE14 -gneE23 gneE11 gneE12"/>
		
    
	</vehicle>
	
    
	<vehicle depart="42.5" id="37">
		<route edges="-gneE25"/>
	</vehicle>
	<vehicle id="18" depart="45.00">
		
        
		<route edges="gneE22 gneE12 gneE13 gneE14"/>
		
    
	</vehicle>
	
    
	<vehicle depart="45.0" id="38">
		<route edges="-gneE25"/>
	</vehicle>
	<vehicle id="19" depart="47.50">
		
        
		<route edges="gneE23 gneE14 gneE15 -gneE27 -gneE28 gneE13"/>
		
    
	</vehicle>
	

	<vehicle depart="47.5" id="39">
		<route edges="-gneE25"/>
	</vehicle>
</routes>
